Version 4
SHEET 1 880 680
WIRE 576 96 544 96
WIRE 416 112 384 112
WIRE 544 112 544 96
WIRE 384 144 384 112
WIRE 384 144 272 144
WIRE 272 272 272 224
WIRE 384 272 384 208
WIRE 384 272 272 272
WIRE 416 272 384 272
WIRE 576 288 576 96
WIRE 592 288 576 288
WIRE 608 288 592 288
WIRE 368 448 368 432
WIRE 368 448 272 448
WIRE 368 496 368 448
WIRE 416 496 368 496
SYMBOL voltage 272 128 R0
SYMATTR InstName V1
SYMBOL voltage 272 352 R0
SYMATTR InstName V2
SYMBOL cap 368 144 R0
SYMATTR InstName C1
SYMBOL cap 352 368 R0
SYMATTR InstName C2
SYMBOL npn 608 240 R0
SYMATTR InstName Q1
SYMBOL Magnetic/transformer2 400 112 R0
SYMATTR InstName U1
SYMBOL Magnetic/transformer2 400 336 R0
SYMATTR InstName U2
SYMBOL res 672 80 R0
SYMATTR InstName R1
SYMBOL res 688 320 R0
SYMATTR InstName R2
SYMBOL res 576 272 R0
SYMATTR InstName R3
SYMBOL res 576 160 R0
SYMATTR InstName R4
SYMBOL cap 544 368 R0
SYMATTR InstName C3
SYMBOL cap 736 96 R0
SYMATTR InstName C4
SYMBOL cap 736 336 R0
SYMATTR InstName C5
SYMBOL ind 800 80 R0
SYMATTR InstName L1
